Circuit: * D:\Escritorio\BUCK_CONVERTER\BUCK_LTspice\Analisis_BUCK_Ideal.asc

Limiting rise time of source v2 to 2.666e-07
Limiting fall time of source v2 to 2.666e-07
Direct Newton iteration for .op point succeeded.

Date: Tue Nov 26 23:39:12 2024
Total elapsed time: 1.748 seconds.

tnom = 27
temp = 27
method = modified trap
totiter = 772105
traniter = 772100
tranpoints = 287022
accept = 212729
rejected = 74293
matrix size = 9
fillins = 3
solver = Normal
Avg thread counts: 1.0/1.0/1.0/1.0
Matrix Compiler1: 598 bytes object code size  0.2/0.2/[0.2]
Matrix Compiler2: 743 bytes object code size  0.2/0.2/[0.1]

